Version 4
SHEET 1 1040 4516
WIRE 256 0 192 0
WIRE 448 0 256 0
WIRE 192 32 192 0
WIRE 256 80 256 0
WIRE 256 80 192 80
WIRE 144 112 -64 112
WIRE 448 128 448 0
WIRE 192 160 192 128
WIRE 288 160 192 160
WIRE 192 192 192 160
WIRE 272 240 192 240
WIRE -64 272 -64 112
WIRE 144 272 -64 272
WIRE -64 288 -64 272
WIRE 192 368 192 288
WIRE 192 368 -64 368
WIRE 272 368 272 240
WIRE 272 368 192 368
WIRE 448 368 448 208
WIRE 448 368 272 368
FLAG 192 368 0
FLAG 288 160 Output
IOPIN 288 160 Out
SYMBOL nmos4 144 192 R0
SYMATTR InstName M2
SYMATTR Value N_50n
SYMATTR Value2 l=50n w=500n
SYMBOL pmos4 144 32 R0
SYMATTR InstName M1
SYMATTR Value P_50n
SYMATTR Value2 l=50n w=1100u
SYMBOL voltage -64 272 R0
WINDOW 123 0 0 Left 0
WINDOW 39 0 0 Left 0
SYMATTR InstName Vgs
SYMATTR Value PULSE(0 1.8 50n 100n 100n 400n 1000n 3)
SYMBOL voltage 448 112 R0
WINDOW 123 0 0 Left 0
WINDOW 39 0 0 Left 0
SYMATTR InstName Vds
SYMATTR Value 1.8
TEXT -48 -24 Left 2 !.tran 0 4u 0 0.01
TEXT -16 440 Left 2 !.include cmos_model.txt
