Version 4
SHEET 1 880 680
SYMBOL nmos 80 96 R0
SYMATTR InstName M1
SYMBOL voltage -48 192 R0
SYMATTR InstName V1
