Version 4
SHEET 1 880 680
WIRE 256 0 160 0
WIRE 480 0 256 0
WIRE 160 64 160 0
WIRE 256 112 256 0
WIRE 256 112 160 112
WIRE 64 144 -112 144
WIRE 112 144 64 144
WIRE 480 144 480 0
WIRE 160 192 160 160
WIRE 256 192 160 192
WIRE -112 224 -112 144
WIRE 160 224 160 192
WIRE 256 272 160 272
WIRE 64 304 64 144
WIRE 112 304 64 304
WIRE -112 368 -112 304
WIRE 160 368 160 320
WIRE 160 368 -112 368
WIRE 208 368 160 368
WIRE 256 368 256 272
WIRE 256 368 208 368
WIRE 480 368 480 224
WIRE 480 368 256 368
WIRE 208 400 208 368
FLAG 208 400 0
SYMBOL pmos4 112 64 R0
SYMATTR InstName M1
SYMATTR Value2 l=180n w={x}
SYMBOL nmos4 112 224 R0
SYMATTR InstName M2
SYMATTR Value2 l=180n w=900n
SYMBOL voltage -112 208 R0
WINDOW 123 0 0 Left 0
WINDOW 39 0 0 Left 0
SYMATTR InstName V1
SYMATTR Value 0
SYMBOL voltage 480 128 R0
WINDOW 123 0 0 Left 0
WINDOW 39 0 0 Left 0
SYMATTR InstName V2
SYMATTR Value 1.8
TEXT -80 336 Left 2 !.dc V1 0 1.8 0.01
TEXT -192 -24 Left 2 !.step param x 180n 3500n 90n
