Version 4
SHEET 1 880 680
WIRE 176 -16 -32 -16
WIRE -32 0 -32 -16
WIRE 208 48 112 48
WIRE 336 48 288 48
WIRE 112 112 112 48
WIRE 176 128 176 -16
WIRE -32 144 -112 144
WIRE 80 144 48 144
WIRE 112 144 112 112
WIRE 112 144 80 144
WIRE 144 144 112 144
WIRE 336 160 336 48
WIRE 336 160 208 160
WIRE -112 176 -112 144
WIRE 144 176 128 176
WIRE 80 240 80 224
WIRE 176 240 176 192
WIRE 80 272 80 240
WIRE 112 272 80 272
WIRE 128 272 128 176
WIRE 128 272 112 272
WIRE 112 288 112 272
FLAG -32 80 0
FLAG 176 320 0
FLAG 336 160 OUT
IOPIN 336 160 Out
FLAG -112 144 IN
IOPIN -112 144 In
FLAG -112 176 0
FLAG 112 112 VFB
IOPIN 112 112 In
FLAG 80 240 VTEST
IOPIN 80 240 In
FLAG 80 272 VTEST
IOPIN 80 272 In
SYMBOL OpAmps\\LT6016 176 160 R0
SYMATTR InstName U1
SYMBOL voltage -32 -16 R0
WINDOW 123 0 0 Left 0
WINDOW 39 0 0 Left 0
SYMATTR InstName VCC
SYMATTR Value 15
SYMBOL voltage 176 224 R0
WINDOW 123 0 0 Left 0
WINDOW 39 0 0 Left 0
SYMATTR InstName VEE
SYMATTR Value -15
SYMBOL res 64 128 R90
WINDOW 0 0 56 VBottom 2
WINDOW 3 32 56 VTop 2
SYMATTR InstName R1
SYMATTR Value 10K
SYMBOL res 304 32 R90
WINDOW 0 0 56 VBottom 2
WINDOW 3 32 56 VTop 2
SYMATTR InstName Rf
SYMATTR Value 100K
SYMBOL voltage 80 128 R0
WINDOW 123 24 124 Left 2
WINDOW 39 0 0 Left 0
SYMATTR InstName V1
SYMATTR Value SINE(0 0 0)
SYMATTR Value2 AC 1 0
TEXT -198 344 Left 2 !.ac dec 100 1m 1G
TEXT -176 384 Left 2 !; .tran 0 1m 0 1u
