Version 4
SHEET 1 880 680
WIRE 176 -16 -32 -16
WIRE -32 0 -32 -16
WIRE 208 64 112 64
WIRE 320 64 288 64
WIRE 112 112 112 64
WIRE 176 128 176 -16
WIRE -80 144 -112 144
WIRE 112 144 112 112
WIRE 112 144 0 144
WIRE 144 144 112 144
WIRE -112 160 -112 144
WIRE 320 160 320 64
WIRE 320 160 208 160
WIRE 336 160 320 160
WIRE 144 176 48 176
WIRE 176 240 176 192
FLAG -32 80 0
FLAG 176 320 0
FLAG 336 160 OUT
IOPIN 336 160 Out
FLAG 112 112 VFB
IOPIN 112 112 In
FLAG -112 160 0
FLAG 48 256 0
FLAG 48 176 VTest
IOPIN 48 176 In
SYMBOL OpAmps\\LT6016 176 160 R0
SYMATTR InstName U1
SYMBOL voltage -32 -16 R0
WINDOW 123 0 0 Left 0
WINDOW 39 0 0 Left 0
SYMATTR InstName VCC
SYMATTR Value 15
SYMBOL voltage 176 224 R0
WINDOW 123 0 0 Left 0
WINDOW 39 0 0 Left 0
SYMATTR InstName VEE
SYMATTR Value -15
SYMBOL voltage 48 160 R0
WINDOW 3 24 152 Left 2
WINDOW 123 24 124 Left 2
WINDOW 39 0 0 Left 0
SYMATTR Value ""
SYMATTR Value2 AC 1 0
SYMATTR InstName V1
SYMBOL res 304 48 R90
WINDOW 0 0 56 VBottom 2
WINDOW 3 32 56 VTop 2
SYMATTR InstName R1
SYMATTR Value 100K
SYMBOL res 16 128 R90
WINDOW 0 0 56 VBottom 2
WINDOW 3 1 56 VTop 2
SYMATTR InstName R2
SYMATTR Value 10K
TEXT -200 344 Left 2 !.ac dec 100 1m 1G
TEXT -176 384 Left 2 !;.tran 0 1m 0 1u
