Version 4
SHEET 1 880 680
SYMBOL nmos4 144 128 R0
SYMATTR InstName M1
SYMBOL voltage 192 240 R0
SYMATTR InstName V1
SYMBOL voltage 96 0 R0
SYMATTR InstName Vdd
