Version 4
SHEET 1 880 680
WIRE -48 48 -160 48
WIRE -32 48 -48 48
WIRE 64 48 -32 48
WIRE 112 48 64 48
WIRE -160 64 -160 48
WIRE 112 64 112 48
WIRE -48 96 -48 48
WIRE 192 112 112 112
WIRE 64 144 64 48
WIRE 192 160 192 112
WIRE 320 160 256 160
WIRE -160 176 -160 144
WIRE 112 192 112 160
WIRE 192 192 192 160
WIRE 192 192 112 192
WIRE 112 208 112 192
WIRE 192 256 112 256
WIRE -64 288 -96 288
WIRE -48 288 -48 176
WIRE -48 288 -64 288
WIRE 16 288 -48 288
WIRE 64 288 16 288
WIRE -160 304 -160 288
WIRE 112 320 112 304
WIRE 192 320 192 256
WIRE 192 320 112 320
WIRE -64 336 -64 288
WIRE 112 352 112 320
WIRE -160 416 -160 384
WIRE -64 464 -64 416
FLAG 112 352 0
FLAG -160 176 0
FLAG -160 416 0
FLAG 16 288 Input
IOPIN 16 288 In
FLAG -32 48 VDD
IOPIN -32 48 In
FLAG 320 160 Out
IOPIN 320 160 Out
FLAG -64 464 0
SYMBOL nmos4 64 64 R0
SYMATTR InstName M1
SYMATTR Value2 l=500n w=1u
SYMBOL nmos4 64 208 R0
SYMATTR InstName M2
SYMATTR Value2 l=500n w=25u
SYMBOL voltage -160 48 R0
WINDOW 123 0 0 Left 0
WINDOW 39 0 0 Left 0
SYMATTR InstName V1
SYMATTR Value 3
SYMBOL voltage -160 288 R0
WINDOW 3 -230 16 Left 2
WINDOW 123 -143 -8 Left 2
WINDOW 39 0 0 Left 0
SYMATTR Value SINE(0 0.2V 10K)
SYMATTR Value2 AC 1 0
SYMATTR InstName V2
SYMBOL cap -96 272 R90
WINDOW 0 0 32 VBottom 2
WINDOW 3 32 32 VTop 2
SYMATTR InstName C1
SYMATTR Value 0.1µ
SYMBOL cap 256 144 R90
WINDOW 0 0 32 VBottom 2
WINDOW 3 32 32 VTop 2
SYMATTR InstName C2
SYMATTR Value 1µ
SYMBOL res -64 80 R0
SYMATTR InstName R1
SYMATTR Value 230K
SYMBOL res -80 320 R0
SYMATTR InstName R2
SYMATTR Value 70K
TEXT 320 200 Left 2 !.MODEL NMOS NMOS LEVEL  = 3                  \n+ VTO    = 0.5      \n+ KP     = 1E-3
TEXT 336 320 Left 2 !;.op
TEXT 336 360 Left 2 !;.tran 0 1m 0 1u
TEXT 336 408 Left 2 !.ac dec 100 1m 1G
