Version 4
SHEET 1 1244 680
WIRE 0 -32 -208 -32
WIRE 128 -32 0 -32
WIRE 208 -32 128 -32
WIRE -208 0 -208 -32
WIRE 0 0 0 -32
WIRE 208 0 208 -32
WIRE 208 96 208 80
WIRE 224 96 208 96
WIRE 320 96 288 96
WIRE -208 112 -208 80
WIRE 208 112 208 96
WIRE 304 160 208 160
WIRE -144 192 -208 192
WIRE 0 192 0 80
WIRE 0 192 -80 192
WIRE 128 192 0 192
WIRE 160 192 128 192
WIRE -208 208 -208 192
WIRE 208 224 208 208
WIRE 304 224 304 160
WIRE 304 224 208 224
WIRE 208 240 208 224
WIRE 0 256 0 192
WIRE -208 352 -208 288
WIRE 0 368 0 336
WIRE 208 368 208 320
FLAG 208 368 0
FLAG 0 368 0
FLAG -208 352 0
FLAG -208 112 0
FLAG 320 96 Out
IOPIN 320 96 Out
FLAG 128 192 Input
IOPIN 128 192 In
FLAG 128 -32 VDD
IOPIN 128 -32 In
SYMBOL nmos4 160 112 R0
SYMATTR InstName M1
SYMATTR Value N_1u
SYMATTR Value2 l=1u w=20u
SYMBOL res 192 -16 R0
SYMATTR InstName Rd
SYMATTR Value 500
SYMBOL res 192 224 R0
SYMATTR InstName Rs
SYMATTR Value 500
SYMBOL res -16 -16 R0
SYMATTR InstName R1
SYMATTR Value 90K
SYMBOL res -16 240 R0
SYMATTR InstName R2
SYMATTR Value 210K
SYMBOL voltage -208 -16 R0
WINDOW 123 0 0 Left 0
WINDOW 39 0 0 Left 0
SYMATTR InstName V1
SYMATTR Value 1.8
SYMBOL voltage -208 192 R0
WINDOW 123 24 124 Left 2
WINDOW 39 0 0 Left 0
SYMATTR Value2 AC 1 0
SYMATTR InstName V2
SYMATTR Value SINE(0 1m 10K)
SYMBOL cap 288 80 R90
WINDOW 0 0 32 VBottom 2
WINDOW 3 32 32 VTop 2
SYMATTR InstName C1
SYMATTR Value 0.1µ
SYMBOL cap -80 176 R90
WINDOW 0 0 32 VBottom 2
WINDOW 3 32 32 VTop 2
SYMATTR InstName C2
SYMATTR Value 0.1µ
TEXT 392 -104 Left 2 !.MODEL N_1u NMOS LEVEL  = 3                  \n+ VTO    = 0.6      \n+ KP     = 800E-6
TEXT 368 248 Left 2 !;op
TEXT 376 288 Left 2 !;tran 0 1m 0 1u
TEXT 368 336 Left 2 !.ac dec 100 1m 1G
