Version 4
SHEET 1 880 680
WIRE 496 0 352 0
WIRE 352 128 352 80
WIRE 320 144 96 144
WIRE 560 160 384 160
WIRE 704 160 560 160
WIRE 320 176 160 176
WIRE 352 240 352 192
WIRE 560 240 560 160
WIRE 160 256 160 176
WIRE 160 432 160 336
WIRE 288 432 160 432
WIRE 352 432 352 320
WIRE 352 432 288 432
WIRE 496 432 496 0
WIRE 496 432 352 432
WIRE 288 496 288 432
WIRE 400 496 336 496
WIRE 448 496 400 496
WIRE 560 496 560 320
WIRE 560 496 528 496
WIRE 560 528 560 496
WIRE 96 544 96 144
WIRE 336 544 336 496
WIRE 336 544 96 544
WIRE 400 544 400 496
WIRE 400 656 400 624
WIRE 480 656 400 656
WIRE 560 656 560 608
WIRE 560 656 480 656
FLAG 288 496 0
FLAG 704 160 vout
IOPIN 704 160 Out
FLAG 480 656 0
SYMBOL OpAmps\\LT6016 352 160 R0
SYMATTR InstName U2
SYMBOL voltage 160 240 R0
WINDOW 123 24 124 Left 2
WINDOW 39 0 0 Left 0
SYMATTR Value2 AC 1 0
SYMATTR InstName Vin
SYMATTR Value SINE(0 1 10k)
SYMBOL voltage 352 96 R180
WINDOW 0 24 96 Left 2
WINDOW 3 24 16 Left 2
WINDOW 123 0 0 Left 0
WINDOW 39 0 0 Left 0
SYMATTR InstName VCC
SYMATTR Value 15V
SYMBOL voltage 352 336 R180
WINDOW 0 24 96 Left 2
WINDOW 3 24 16 Left 2
WINDOW 123 0 0 Left 0
WINDOW 39 0 0 Left 0
SYMATTR InstName VEE
SYMATTR Value 15V
SYMBOL res 544 224 R0
SYMATTR InstName R3
SYMATTR Value 1K
SYMBOL res 544 512 R0
SYMATTR InstName R4
SYMATTR Value 1K
SYMBOL res 544 480 R90
WINDOW 0 0 56 VBottom 2
WINDOW 3 32 56 VTop 2
SYMATTR InstName R5
SYMATTR Value 1K
SYMBOL res 416 640 R180
WINDOW 0 36 76 Left 2
WINDOW 3 36 40 Left 2
SYMATTR InstName R6
SYMATTR Value 1K
TEXT 40 24 Left 2 !.tran 0 1m 0 1u
TEXT 40 -8 Left 2 !;.ac dec 1000 1m 1G
